[General]
network = RandReg
**.cmdenv-log-level = info
cmdenv-express-mode = true
**.miningRate = ${0.000001, 0.0001, 0.0002, 0.0004, 0.0006, 0.0008, 0.0009, 0.001, 0.002, 0.003}
**.procTime = 1s
**.roundIntv = 100s
sim-time-limit = 1000s
