[General]
network = RandReg
**.cmdenv-log-level = info
cmdenv-express-mode= true
**.mineIntv = 20000s
sim-time-limit = 36000s
