[General]
network = TwoNodes
**.cmdenv-log-level = info
cmdenv-express-mode = true
**.miningRate = 0.05
**.procTime = 0.1s
**.roundIntv = 5s
sim-time-limit = 100000s
