[General]
network = RandReg
**.cmdenv-log-level = info
cmdenv-express-mode = true
**.miningRate = ${0.0001, 0.01, 0.02, 0.04, 0.06, 0.08, 0.09, 0.1, 0.2, 0.3}
**.procTime = 0.01s
**.roundIntv = 100s
sim-time-limit = 200s
