[General]
network = TwoNodes
**.cmdenv-log-level = info
cmdenv-express-mode = true
**.miningRate = 1 
**.numFixedMiners = 2
**.procTime = 1s
**.roundIntv = 200s
sim-time-limit = 20000s
