[General]
network = RandReg
**.cmdenv-log-level = info
cmdenv-express-mode = true
**.miningRate = 1 
**.numFixedMiners = ${1,2,3,4,5,6,7,8,9,10}
**.procTime = 1s
**.roundIntv = 100s
sim-time-limit = 200s
