[General]
network = FullConnect
**.cmdenv-log-level = info
cmdenv-express-mode = true
**.numNodes = 5
FullConnect.node[0].rl.outgoingRate = 5Mbps
FullConnect.node[1].rl.outgoingRate = 7Mbps
FullConnect.node[2].rl.outgoingRate = 10Mbps
FullConnect.node[3].rl.outgoingRate = 15Mbps
FullConnect.node[4].rl.outgoingRate = 60Mbps
**.procTime = 0.1s
**.totalChunks = 30
sim-time-limit = 20000s
