[General]
network = RandReg
**.cmdenv-log-level = info
cmdenv-express-mode = true
**.miningRate = ${N=0.00001..0.0001 step 0.00001}
**.procTime = 0.1s
**.roundIntv = 100s
sim-time-limit = 10000s
