[General]
network = RandReg
**.cmdenv-log-level = info
cmdenv-express-mode = true
**.miningRate = ${0.01, 0.1, 0.2, 0.4, 0.6, 0.8, 0.9, 1, 2, 3}
**.procTime = 1s
**.roundIntv = 100s
sim-time-limit = 200s
