[General]
network = RandReg
**.cmdenv-log-level = info
cmdenv-express-mode= true
**.mineIntv = 20000s
**.procTime = 0.1s
sim-time-limit = 100000s
