[General]
network = RandReg
**.cmdenv-log-level = info
cmdenv-express-mode = true
**.miningRate = ${0.00001, 0.001, 0.002, 0.004, 0.006, 0.008, 0.009, 0.01, 0.02, 0.03}
**.procTime = 0.1s
**.roundIntv = 100s
sim-time-limit = 10000s
