[General]
network = TwoNodes
**.cmdenv-log-level = info
cmdenv-express-mode= true
**.roundTime = 10s
**.miningRate = 0.05
**.procTime = 0.1s
sim-time-limit = 100000s
