[General]
network = FullConnect
**.cmdenv-log-level = info
cmdenv-express-mode = true
**.miningRate = 1
**.numFixedMiners = 5
**.procTime = 1s
**.roundIntv = 200s
sim-time-limit = 20000s
