[General]
network = TwoNodes
**.cmdenv-log-level = info
cmdenv-express-mode = true
**.miningRate = 0.05
**.numFixedMiners = 0
**.procTime = 0.2s
**.roundIntv = 0s
sim-time-limit = 200000s
